Circuit: * D:\Amrita Notes\SEMESTER 4\LIC Lab(Simulation)\555Timersimulation.asc

Limiting rise time of source v3 to 2e-05
Limiting fall time of source v3 to 2e-05
Direct Newton iteration for .op point succeeded.

Date: Wed May  8 18:06:47 2024
Total elapsed time: 0.290 seconds.

tnom = 27
temp = 27
method = modified trap
totiter = 5150
traniter = 5142
tranpoints = 1785
accept = 1630
rejected = 155
matrix size = 15
fillins = 0
solver = Normal
Avg thread counts: 1.2/1.6/1.6/1.2
Matrix Compiler1: 434 bytes object code size  0.3/0.2/[0.2]
Matrix Compiler2: 783 bytes object code size  0.3/0.3/[0.2]

