Circuit: * D:\Amrita Notes\SEMESTER 4\LIC Lab(Simulation)\CMRR.asc

Instance "m:u3:5": Length shorter than recommended for a level 2 MOSFET.
Instance "m:u3:6": Length shorter than recommended for a level 2 MOSFET.
Direct Newton iteration for .op point succeeded.

Date: Sat Apr 20 19:22:03 2024
Total elapsed time: 0.129 seconds.

tnom = 27
temp = 27
method = modified trap
totiter = 2104
traniter = 2082
tranpoints = 1042
accept = 1042
rejected = 0
matrix size = 50
fillins = 28
solver = Normal
Avg thread counts: 1.5/1.9/1.9/1.5
Matrix Compiler1: 4.52 KB object code size  1.6/0.8/[0.7]
Matrix Compiler2: 4.97 KB object code size  0.7/0.7/[0.5]

