Circuit: * D:\Amrita Notes\SEMESTER 4\LIC Lab(Simulation)\Comparator.asc

Instance "m:u1:5": Length shorter than recommended for a level 2 MOSFET.
Instance "m:u1:6": Length shorter than recommended for a level 2 MOSFET.
Instance "m:u2:5": Length shorter than recommended for a level 2 MOSFET.
Instance "m:u2:6": Length shorter than recommended for a level 2 MOSFET.
Instance "m:u3:5": Length shorter than recommended for a level 2 MOSFET.
Instance "m:u3:6": Length shorter than recommended for a level 2 MOSFET.
Direct Newton iteration for .op point succeeded.

Date: Wed May  8 18:58:16 2024
Total elapsed time: 0.161 seconds.

tnom = 27
temp = 27
method = modified trap
totiter = 5979
traniter = 5952
tranpoints = 2304
accept = 1805
rejected = 499
matrix size = 128
fillins = 53
solver = Normal
Avg thread counts: 1.2/1.4/1.4/1.2
Matrix Compiler1: 8.06 KB object code size  3.0/1.2/[1.1]
Matrix Compiler2: 11.83 KB object code size  1.2/1.5/[1.0]

