Circuit: * D:\Amrita Notes\SEMESTER 4\LIC Lab(Simulation)\Difference_Amplifier.asc

Instance "m:u1:5": Length shorter than recommended for a level 2 MOSFET.
Instance "m:u1:6": Length shorter than recommended for a level 2 MOSFET.
Direct Newton iteration for .op point succeeded.

Date: Tue May  7 21:23:59 2024
Total elapsed time: 0.500 seconds.

tnom = 27
temp = 27
method = modified trap
totiter = 2125
traniter = 2082
tranpoints = 1042
accept = 1042
rejected = 0
matrix size = 44
fillins = 41
solver = Normal
Avg thread counts: 1.5/1.9/1.9/1.5
Matrix Compiler1: 3.81 KB object code size  5.8/2.1/[1.4]
Matrix Compiler2: 4.48 KB object code size  2.0/2.6/[1.3]

