Circuit: * D:\Amrita Notes\SEMESTER 4\LIC Lab(Simulation)\Differentiator.asc

Direct Newton iteration failed to find .op point.  (Use ".option noopiter" to skip.)
Starting Gmin stepping
Gmin = 10
Gmin = 1.07374
vernier = 0.5
vernier = 0.25
vernier = 0.125
vernier = 0.0625
Gmin = 1.08884
vernier = 0.03125
vernier = 0.015625
Gmin = 1.03122
vernier = 0.0078125
vernier = 0.0104167
vernier = 0.00520833
Gmin = 1.01988
vernier = 0.00260417
vernier = 0.00347222
Gmin = 1.01305
vernier = 0.00173611
vernier = 0.00231481
vernier = 0.00115741
Gmin = 1.01085
vernier = 0.00154321
vernier = 0.000771604
Gmin = 1.00871
vernier = 0.00102881
vernier = 0.000514403
Gmin = 1.00715
vernier = 0.00068587
vernier = 0.000514403
Gmin = 1.0059
vernier = 0.00068587
vernier = 0.000514402
Gmin = 0
Gmin stepping failed

Starting source stepping with srcstepmethod=0
Source Step = 3.0303%
Source Step = 33.3333%
Source Step = 63.6364%
Source Step = 93.9394%
Source Step = 94.2708%
Source Step = 94.7443%
Source Step = 95.2178%
Source Step = 95.6913%
Source Step = 96.1648%
vernier = 0.0234375
Source Step = 96.7803%
Source Step = 97.4905%
Source Step = 98.2008%
Source Step = 98.911%
Source Step = 99.6212%
vernier = 0.0351562
Source stepping succeeded in finding the operating point.


Date: Thu Mar 14 15:27:40 2024
Total elapsed time: 0.652 seconds.

tnom = 27
temp = 27
method = modified trap
totiter = 9255
traniter = 2082
tranpoints = 1042
accept = 1042
rejected = 0
matrix size = 14
fillins = 4
solver = Normal
Avg thread counts: 1.5/1.9/1.9/1.5
Matrix Compiler1: 834 bytes object code size  1.6/1.0/[0.8]
Matrix Compiler2: 1.31 KB object code size  1.2/1.0/[0.5]

