Circuit: * D:\Amrita Notes\SEMESTER 4\LIC Lab(Simulation)\Draft3.asc

Direct Newton iteration for .op point succeeded.

Date: Thu Mar  7 15:07:08 2024
Total elapsed time: 0.248 seconds.

tnom = 27
temp = 27
method = modified trap
totiter = 5857
traniter = 5845
tranpoints = 2632
accept = 2299
rejected = 333
matrix size = 10
fillins = 1
solver = Normal
Avg thread counts: 1.2/1.4/1.4/1.2
Matrix Compiler1: 552 bytes object code size  1.2/0.8/[0.6]
Matrix Compiler2: 942 bytes object code size  0.9/1.2/[0.5]

