Circuit: * D:\Amrita Notes\SEMESTER 4\LIC Lab(Simulation)\Draft1.asc

Instance "m:u1:5": Length shorter than recommended for a level 2 MOSFET.
Instance "m:u1:6": Length shorter than recommended for a level 2 MOSFET.
Instance "m:u2:5": Length shorter than recommended for a level 2 MOSFET.
Instance "m:u2:6": Length shorter than recommended for a level 2 MOSFET.
Instance "m:u3:5": Length shorter than recommended for a level 2 MOSFET.
Instance "m:u3:6": Length shorter than recommended for a level 2 MOSFET.
Direct Newton iteration failed to find .op point.  (Use ".option noopiter" to skip.)
Starting Gmin stepping
Gmin = 10
Gmin = 1.07374
vernier = 0.5
vernier = 0.25
vernier = 0.125
vernier = 0.0625
Gmin = 1.08884
vernier = 0.03125
vernier = 0.015625
Gmin = 1.03122
vernier = 0.0078125
vernier = 0.0104167
vernier = 0.00520833
Gmin = 1.01988
vernier = 0.00260417
vernier = 0.00347222
Gmin = 1.01305
vernier = 0.00173611
vernier = 0.00231481
vernier = 0.00115741
Gmin = 1.01085
vernier = 0.00154321
vernier = 0.000771604
Gmin = 1.00871
vernier = 0.00102881
vernier = 0.000514403
Gmin = 1.00715
vernier = 0.00068587
vernier = 0.000514403
Gmin = 1.0059
vernier = 0.00068587
vernier = 0.000514402
Gmin = 0
Gmin stepping failed

Starting source stepping with srcstepmethod=0
Source Step = 3.0303%
Source Step = 33.3333%
Source Step = 36.3755%
Source Step = 36.4051%
Source Step = 36.4347%
Source Step = 36.4643%
Source Step = 36.4938%
vernier = 0.00146484
Source Step = 36.5249%
Source Step = 36.5693%
Source Step = 36.6137%
Source Step = 36.6581%
Source Step = 36.7025%
Source Step = 36.7469%
vernier = 0.00219727
Source Step = 36.8134%
Source Step = 36.88%
Source Step = 36.9466%
Source Step = 37.0132%
Source Step = 37.0798%
vernier = 0.0032959
Source Step = 37.1763%
Source Step = 37.2762%
Source Step = 37.3761%
Source Step = 37.476%
Source Step = 37.5758%
vernier = 0.00494385
Source Step = 37.7157%
Source Step = 37.8655%
Source Step = 38.0153%
Source Step = 38.1651%
Source Step = 38.3149%
vernier = 0.00741577
Source Step = 38.5172%
Source Step = 38.7419%
Source Step = 38.9666%
Source Step = 39.1913%
Source Step = 39.416%
vernier = 0.0111237
Source Step = 39.7082%
Source Step = 40.0453%
Source Step = 40.3823%
Source Step = 40.7194%
Source Step = 41.0565%
vernier = 0.0166855
Source Step = 41.4779%
Source Step = 41.9835%
Source Step = 42.4891%
Source Step = 42.9947%
Source Step = 43.5003%
vernier = 0.0250282
Source Step = 44.1071%
Source Step = 44.8655%
Source Step = 45.6239%
Source Step = 46.3824%
Source Step = 47.1408%
vernier = 0.0375423
Source Step = 48.013%
Source Step = 49.1506%
Source Step = 50.2883%
Source Step = 51.4259%
Source Step = 52.5636%
vernier = 0.0563135
Source Step = 53.815%
Source Step = 55.5215%
Source Step = 57.2279%
Source Step = 58.9344%
Source Step = 60.6409%
vernier = 0.0844703
Source Step = 62.4327%
Source Step = 64.9924%
Source Step = 67.5521%
Source Step = 70.1118%
Source Step = 72.6715%
Source Step = 75.2312%
vernier = 0.126705
Source Step = 79.0708%
Source Step = 82.9103%
Source Step = 86.7499%
Source Step = 90.5894%
Source Step = 94.429%
vernier = 0.190058
Source Step = 99.9963%
Source stepping succeeded in finding the operating point.


Date: Thu Apr 25 14:56:46 2024
Total elapsed time: 1.422 seconds.

tnom = 27
temp = 27
method = modified trap
totiter = 15062
traniter = 5546
tranpoints = 1987
accept = 1615
rejected = 372
matrix size = 118
fillins = 162
solver = Normal
Avg thread counts: 1.2/1.5/1.5/1.2
Matrix Compiler1: 12.48 KB object code size  2.7/1.8/[1.6]
Matrix Compiler2: 13.43 KB object code size  1.3/2.1/[1.1]

