Circuit: * D:\Amrita Notes\SEMESTER 4\LIC Lab(Simulation)\Draft2.asc

r4: both pins shorted together -- ignoring.
c2: both pins shorted together -- ignoring.
No AC stimulus found:
     Set the value of a current or voltage source to "AC 1."
     to make it behave as a signal generator for AC analysis.
Direct Newton iteration for .op point succeeded.

Date: Sat Apr 27 16:32:59 2024
Total elapsed time: 0.056 seconds.

tnom = 27
temp = 27
method = trap
totiter = 25
traniter = 0
tranpoints = 0
accept = 0
rejected = 0
matrix size = 22
fillins = 11
solver = Normal
Avg thread counts: 12.0/0.0/12.0/12.0
Matrix Compiler1:     100 opcodes
Matrix Compiler2: 2.29 KB object code size
