Circuit: * D:\Amrita Notes\SEMESTER 4\LIC Lab(Simulation)\Draft4.asc

Instance "m:u1:5": Length shorter than recommended for a level 2 MOSFET.
Instance "m:u1:6": Length shorter than recommended for a level 2 MOSFET.
Direct Newton iteration failed to find .op point.  (Use ".option noopiter" to skip.)
Starting Gmin stepping
Gmin = 10
Gmin = 1.07374
vernier = 0.5
vernier = 0.25
vernier = 0.125
vernier = 0.0625
Gmin = 1.08884
vernier = 0.03125
vernier = 0.015625
Gmin = 1.03122
vernier = 0.0078125
vernier = 0.0104167
vernier = 0.00520833
Gmin = 1.01988
vernier = 0.00260417
vernier = 0.00347222
Gmin = 1.01305
vernier = 0.00173611
vernier = 0.00231481
vernier = 0.00115741
Gmin = 1.01085
vernier = 0.00154321
vernier = 0.000771604
Gmin = 1.00871
vernier = 0.00102881
vernier = 0.000514403
Gmin = 1.00715
vernier = 0.00068587
vernier = 0.000514403
Gmin = 1.0059
vernier = 0.00068587
vernier = 0.000514402
Gmin = 0
Gmin stepping failed

Starting source stepping with srcstepmethod=0
Source Step = 3.0303%
Source Step = 33.3333%
Source Step = 48.4967%
vernier = 0.000976562
Source Step = 48.5144%
Source Step = 48.544%
Source Step = 48.5736%
Source Step = 48.6032%
Source Step = 48.6328%
vernier = 0.00146484
Source Step = 48.6742%
Source Step = 48.7186%
Source Step = 48.763%
Source Step = 48.8074%
Source Step = 48.8518%
vernier = 0.00219727
Source Step = 48.9117%
Source Step = 48.9783%
Source Step = 49.0449%
Source Step = 49.1115%
Source Step = 49.1781%
vernier = 0.0032959
Source Step = 49.2646%
Source Step = 49.3645%
Source Step = 49.4644%
Source Step = 49.5642%
Source Step = 49.6641%
vernier = 0.00494385
Source Step = 49.789%
Source Step = 49.9388%
Source Step = 50.0886%
Source Step = 50.2384%
Source Step = 50.3882%
vernier = 0.00741577
Source Step = 50.568%
Source Step = 50.7927%
Source Step = 51.0174%
Source Step = 51.2422%
Source Step = 51.4669%
vernier = 0.0111237
Source Step = 51.7253%
Source Step = 52.0624%
Source Step = 52.3995%
Source Step = 52.7365%
Source Step = 53.0736%
vernier = 0.0166855
Source Step = 53.4444%
Source Step = 53.95%
Source Step = 54.4557%
Source Step = 54.9613%
Source Step = 55.4669%
vernier = 0.0250282
Source Step = 55.9978%
Source Step = 56.7562%
Source Step = 57.5147%
Source Step = 58.2731%
Source Step = 59.0315%
Source Step = 59.79%
vernier = 0.0375423
Source Step = 60.9276%
Source Step = 62.0653%
Source Step = 63.2029%
Source Step = 64.3405%
Source Step = 65.4782%
vernier = 0.0563135
Source Step = 67.1278%
Source Step = 68.8342%
Source Step = 70.5407%
Source Step = 72.2472%
Source Step = 73.9537%
vernier = 0.0844703
Source Step = 76.3427%
Source Step = 78.9024%
Source Step = 81.4621%
Source Step = 84.0218%
Source Step = 86.5815%
vernier = 0.126705
Source Step = 90.0371%
Source Step = 93.8767%
Source Step = 97.7163%
Source stepping succeeded in finding the operating point.


Date: Sat Apr 20 23:49:28 2024
Total elapsed time: 0.400 seconds.

tnom = 27
temp = 27
method = modified trap
totiter = 10978
traniter = 2083
tranpoints = 1042
accept = 1042
rejected = 0
matrix size = 43
fillins = 43
solver = Normal
Avg thread counts: 1.5/1.9/1.9/1.5
Matrix Compiler1: 3.88 KB object code size  1.5/0.8/[0.6]
Matrix Compiler2: 4.48 KB object code size  0.7/0.7/[0.5]

