Circuit: * D:\Amrita Notes\SEMESTER 4\LIC Lab(Simulation)\Exp1_Slew_rate.asc

Direct Newton iteration for .op point succeeded.

Date: Tue May  7 20:46:32 2024
Total elapsed time: 0.095 seconds.

tnom = 27
temp = 27
method = modified trap
totiter = 5857
traniter = 5845
tranpoints = 2632
accept = 2299
rejected = 333
matrix size = 10
fillins = 1
solver = Normal
Avg thread counts: 1.2/1.4/1.4/1.2
Matrix Compiler1: 552 bytes object code size  0.5/0.3/[0.2]
Matrix Compiler2: 942 bytes object code size  0.3/0.3/[0.1]

