Circuit: * D:\Amrita Notes\SEMESTER 4\LIC Lab(Simulation)\Exp1_CMRR.asc

Instance "m:u1:5": Length shorter than recommended for a level 2 MOSFET.
Instance "m:u1:6": Length shorter than recommended for a level 2 MOSFET.
Direct Newton iteration for .op point succeeded.

Date: Tue May  7 20:38:53 2024
Total elapsed time: 0.131 seconds.

tnom = 27
temp = 27
method = modified trap
totiter = 2104
traniter = 2082
tranpoints = 1042
accept = 1042
rejected = 0
matrix size = 50
fillins = 28
solver = Normal
Avg thread counts: 1.5/1.9/1.9/1.5
Matrix Compiler1: 4.52 KB object code size  1.8/1.0/[0.7]
Matrix Compiler2: 4.97 KB object code size  0.7/0.7/[0.5]

