Circuit: * D:\Amrita Notes\SEMESTER 4\LIC Lab(Simulation)\Exp2.asc

Direct Newton iteration for .op point succeeded.

Date: Wed May  8 18:41:19 2024
Total elapsed time: 0.098 seconds.

tnom = 27
temp = 27
method = modified trap
totiter = 2627
traniter = 2613
tranpoints = 1145
accept = 1099
rejected = 46
matrix size = 31
fillins = 4
solver = Normal
Avg thread counts: 1.4/1.8/1.8/1.4
Matrix Compiler1: 1.40 KB object code size  0.7/0.4/[0.4]
Matrix Compiler2: 2.79 KB object code size  0.5/0.6/[0.3]

