Circuit: * D:\Amrita Notes\SEMESTER 4\LIC Lab(Simulation)\Instrumentation_Ampli.asc

Direct Newton iteration for .op point succeeded.

Date: Tue May  7 21:51:40 2024
Total elapsed time: 0.285 seconds.

tnom = 27
temp = 27
method = modified trap
totiter = 2099
traniter = 2082
tranpoints = 1042
accept = 1042
rejected = 0
matrix size = 32
fillins = 47
solver = Normal
Avg thread counts: 1.5/1.9/1.9/1.5
Matrix Compiler1: 4.06 KB object code size  5.3/3.2/[1.8]
Matrix Compiler2: 3.97 KB object code size  1.9/2.2/[1.3]

