Circuit: * D:\Amrita Notes\SEMESTER 4\LIC Lab(Simulation)\Integrator.asc

No AC stimulus found:
     Set the value of a current or voltage source to "AC 1."
     to make it behave as a signal generator for AC analysis.
Direct Newton iteration for .op point succeeded.

Date: Thu Mar 14 14:59:31 2024
Total elapsed time: 0.182 seconds.

tnom = 27
temp = 27
method = trap
totiter = 10
traniter = 0
tranpoints = 0
accept = 0
rejected = 0
matrix size = 11
fillins = 2
solver = Normal
Avg thread counts: 12.0/0.0/12.0/1.6
Matrix Compiler1:      33 opcodes
Matrix Compiler2: 1.00 KB object code size
