Circuit: * D:\Amrita Notes\SEMESTER 4\LIC Lab(Simulation)\Inverting_Ampli.asc

Direct Newton iteration for .op point succeeded.

Date: Thu Mar  7 14:35:14 2024
Total elapsed time: 0.892 seconds.

tnom = 27
temp = 27
method = modified trap
totiter = 2293
traniter = 2282
tranpoints = 1050
accept = 1049
rejected = 1
matrix size = 32
fillins = 5
solver = Normal
Avg thread counts: 1.4/1.9/1.9/1.4
Matrix Compiler1: 1.64 KB object code size  2.6/1.6/[0.9]
Matrix Compiler2: 3.03 KB object code size  1.5/2.4/[1.1]

