Circuit: * D:\Amrita Notes\SEMESTER 4\LIC Lab(Simulation)\Schmitt_trigger.asc

Instance "m:u1:5": Length shorter than recommended for a level 2 MOSFET.
Instance "m:u1:6": Length shorter than recommended for a level 2 MOSFET.
Direct Newton iteration for .op point succeeded.

Date: Thu Mar 28 15:36:34 2024
Total elapsed time: 0.275 seconds.

tnom = 27
temp = 27
method = modified trap
totiter = 3908
traniter = 3887
tranpoints = 1537
accept = 1348
rejected = 189
matrix size = 42
fillins = 31
solver = Normal
Avg thread counts: 1.2/1.6/1.6/1.2
Matrix Compiler1: 3.44 KB object code size  3.6/1.8/[1.1]
Matrix Compiler2: 4.14 KB object code size  1.9/2.2/[1.3]

